Version 4
SHEET 1 880 680
WIRE 672 -192 432 -192
WIRE 432 -160 432 -192
WIRE 432 -32 432 -80
WIRE 160 -16 80 -16
WIRE 336 -16 240 -16
WIRE 336 16 336 -16
WIRE 368 16 336 16
WIRE 384 16 368 16
WIRE 672 16 672 -192
WIRE 80 80 80 -16
WIRE 432 128 432 64
WIRE 80 208 80 160
WIRE 432 208 80 208
WIRE 672 208 672 96
WIRE 672 208 432 208
WIRE 80 256 80 208
FLAG 80 256 0
SYMBOL voltage 80 64 R0
WINDOW 123 0 0 Left 2
WINDOW 39 0 0 Left 2
SYMATTR InstName V1
SYMATTR Value PULSE(0 1 10m 0 0 10m 20m)
SYMBOL res 144 0 R270
WINDOW 0 32 56 VTop 2
WINDOW 3 0 56 VBottom 2
SYMATTR InstName R1
SYMATTR Value 1k
SYMBOL res 416 112 R0
SYMATTR InstName R2
SYMATTR Value 0.0001
SYMBOL res 416 -176 R0
SYMATTR InstName R3
SYMATTR Value 10k
SYMBOL Misc\\battery 672 0 R0
SYMATTR InstName V2
SYMATTR Value 5v
SYMBOL npn 368 -32 R0
SYMATTR InstName Q1
TEXT 152 112 Left 2 !.tran 100m
