Version 4
SHEET 1 916 680
WIRE 192 -128 -704 -128
WIRE -704 -48 -704 -128
WIRE -576 -48 -704 -48
WIRE 192 -48 192 -128
WIRE 320 -48 192 -48
WIRE -384 -32 -480 -32
WIRE -192 -32 -384 -32
WIRE -48 -32 -192 -32
WIRE 512 -32 416 -32
WIRE 704 -32 512 -32
WIRE 848 -32 704 -32
WIRE -704 32 -704 -48
WIRE -480 32 -480 -32
WIRE -384 32 -384 -32
WIRE 416 32 416 -32
WIRE 512 32 512 -32
WIRE -192 64 -192 -32
WIRE -48 64 -48 -32
WIRE 704 64 704 -32
WIRE 848 64 848 -32
WIRE -576 112 -576 -48
WIRE -480 112 -480 96
WIRE -480 112 -576 112
WIRE -384 112 -384 96
WIRE -352 112 -384 112
WIRE 320 112 320 -48
WIRE 416 112 416 96
WIRE 416 112 320 112
WIRE 512 112 512 96
WIRE 544 112 512 112
WIRE -480 128 -480 112
WIRE -384 128 -384 112
WIRE 416 128 416 112
WIRE 512 128 512 112
WIRE -480 208 -480 192
WIRE -384 208 -384 192
WIRE -384 208 -480 208
WIRE -320 208 -384 208
WIRE -192 208 -192 128
WIRE -192 208 -320 208
WIRE -48 208 -48 144
WIRE -48 208 -192 208
WIRE 416 208 416 192
WIRE 512 208 512 192
WIRE 512 208 416 208
WIRE 576 208 512 208
WIRE 704 208 704 128
WIRE 704 208 576 208
WIRE 848 208 848 144
WIRE 848 208 704 208
WIRE -320 224 -320 208
WIRE 576 224 576 208
WIRE -704 240 -704 112
WIRE -352 240 -352 112
WIRE -352 240 -704 240
WIRE 544 240 544 112
WIRE 544 240 192 240
WIRE -704 336 -704 240
WIRE 192 336 192 240
WIRE 192 336 -704 336
FLAG -320 224 0
FLAG 576 224 0
SYMBOL diode -368 192 R180
WINDOW 0 24 64 Left 2
WINDOW 3 24 0 Left 2
SYMATTR InstName D1
SYMBOL diode -368 96 R180
WINDOW 0 24 64 Left 2
WINDOW 3 24 0 Left 2
SYMATTR InstName D2
SYMBOL diode -464 192 R180
WINDOW 0 24 64 Left 2
WINDOW 3 24 0 Left 2
SYMATTR InstName D3
SYMBOL diode -464 96 R180
WINDOW 0 24 64 Left 2
WINDOW 3 24 0 Left 2
SYMATTR InstName D4
SYMBOL res -64 48 R0
SYMATTR InstName R1
SYMATTR Value 200
SYMBOL voltage -704 16 R0
WINDOW 3 18 127 Left 2
WINDOW 123 0 0 Left 2
WINDOW 39 0 0 Left 2
SYMATTR InstName V1
SYMATTR Value SINE(0 5 100)
SYMBOL cap -208 64 R0
SYMATTR InstName C1
SYMATTR Value 1000u
SYMBOL diode 528 192 R180
WINDOW 0 24 64 Left 2
WINDOW 3 24 0 Left 2
SYMATTR InstName D5
SYMBOL diode 528 96 R180
WINDOW 0 24 64 Left 2
WINDOW 3 24 0 Left 2
SYMATTR InstName D6
SYMBOL diode 432 192 R180
WINDOW 0 24 64 Left 2
WINDOW 3 24 0 Left 2
SYMATTR InstName D7
SYMBOL diode 432 96 R180
WINDOW 0 24 64 Left 2
WINDOW 3 24 0 Left 2
SYMATTR InstName D8
SYMBOL res 832 48 R0
SYMATTR InstName R2
SYMATTR Value 200
SYMBOL cap 688 64 R0
SYMATTR InstName C2
SYMATTR Value 1000u
TEXT -690 184 Left 2 !.tran 100m
TEXT -784 0 Left 2 ;n001
TEXT -792 192 Left 2 ;N003
TEXT -88 -56 Left 2 ;n002 B
