Version 4
SHEET 1 880 680
WIRE 128 64 16 64
WIRE 240 64 128 64
WIRE 128 80 128 64
WIRE 16 96 16 64
WIRE 240 96 240 64
WIRE 16 192 16 176
WIRE 128 192 128 160
WIRE 128 192 16 192
WIRE 240 192 240 160
WIRE 240 192 128 192
WIRE 16 224 16 192
FLAG 16 224 0
SYMBOL Misc\\battery 16 80 R0
SYMATTR InstName V1
SYMATTR Value 1
SYMBOL LED 224 96 R0
SYMATTR InstName D1
SYMBOL res 112 64 R0
SYMATTR InstName R1
SYMATTR Value 100
TEXT -18 248 Left 2 !.tran 1m
