Version 4
SHEET 1 880 680
WIRE 400 -16 96 -16
WIRE 96 80 96 -16
WIRE 400 80 400 -16
WIRE 96 208 96 160
WIRE 400 208 400 144
WIRE 400 208 96 208
WIRE 96 240 96 208
FLAG 96 240 0
SYMBOL diode 384 80 R0
SYMATTR InstName D1
SYMBOL Misc\\battery 96 64 R0
SYMATTR InstName V1
