Version 4
SHEET 1 888 680
WIRE 576 -448 416 -448
WIRE 816 -448 656 -448
WIRE 816 -400 816 -448
WIRE 416 -384 416 -448
WIRE 416 -272 416 -304
WIRE 816 -272 816 -336
WIRE 816 -272 416 -272
WIRE 416 -224 416 -272
FLAG 416 -224 0
SYMBOL voltage 416 -400 R0
WINDOW 123 0 0 Left 2
WINDOW 39 0 0 Left 2
SYMATTR InstName V1
SYMATTR Value PULSE(0 1 10m 0 0 10m)
SYMBOL res 560 -432 R270
WINDOW 0 32 56 VTop 2
WINDOW 3 0 56 VBottom 2
SYMATTR InstName R1
SYMATTR Value 10
SYMBOL cap 800 -400 R0
SYMATTR InstName C1
SYMATTR Value 100u
TEXT 384 -200 Left 2 !.tran 100m
TEXT 408 -480 Left 2 ;n001
TEXT 752 -480 Left 2 ;n002
