Version 4
SHEET 1 1080 680
WIRE 576 -672 416 -672
WIRE 992 -672 656 -672
WIRE 416 -448 416 -672
WIRE 576 -448 416 -448
WIRE 816 -448 656 -448
WIRE 816 -400 816 -448
WIRE 992 -400 992 -672
WIRE 416 -384 416 -448
WIRE 416 -272 416 -304
WIRE 816 -272 816 -336
WIRE 816 -272 416 -272
WIRE 992 -272 992 -336
WIRE 992 -272 816 -272
WIRE 416 -224 416 -272
FLAG 416 -224 0
SYMBOL voltage 416 -400 R0
WINDOW 123 0 0 Left 2
WINDOW 39 0 0 Left 2
SYMATTR InstName V1
SYMATTR Value PULSE(0 1 10m 0 0 10m)
SYMBOL res 560 -432 R270
WINDOW 0 32 56 VTop 2
WINDOW 3 0 56 VBottom 2
SYMATTR InstName R1
SYMATTR Value 10
SYMBOL cap 800 -400 R0
SYMATTR InstName C1
SYMATTR Value 200u
SYMBOL res 560 -656 R270
WINDOW 0 32 56 VTop 2
WINDOW 3 0 56 VBottom 2
SYMATTR InstName R2
SYMATTR Value 100
SYMBOL cap 976 -400 R0
SYMATTR InstName C2
SYMATTR Value 200u
TEXT 384 -200 Left 2 !.tran 100m
TEXT 448 -704 Left 2 ;N001
TEXT 712 -712 Left 2 ;N002
TEXT 344 -416 Left 2 ;n001
TEXT 472 -472 Left 2 ;N001
TEXT 696 -480 Left 2 ;N003
