Version 4
SHEET 1 880 680
WIRE 416 0 96 0
WIRE 416 64 416 0
WIRE 96 96 96 0
WIRE 96 208 96 176
WIRE 416 208 416 128
WIRE 416 208 96 208
WIRE 96 224 96 208
FLAG 96 224 0
SYMBOL voltage 96 80 R0
WINDOW 123 0 0 Left 2
WINDOW 39 0 0 Left 2
SYMATTR InstName V1
SYMATTR Value SINE(0 1 100 10m)
SYMBOL cap 400 64 R0
SYMATTR InstName C1
SYMATTR Value 100u
TEXT 62 248 Left 2 !.tran 100m
