Version 4
SHEET 1 880 680
WIRE 336 0 80 0
WIRE 432 0 336 0
WIRE 336 64 336 0
WIRE 432 64 432 0
WIRE 80 80 80 0
WIRE 80 208 80 160
WIRE 336 208 336 144
WIRE 336 208 80 208
WIRE 432 208 432 144
WIRE 432 208 336 208
WIRE 80 256 80 208
FLAG 80 256 0
SYMBOL Misc\\battery 80 64 R0
SYMATTR InstName V1
SYMATTR Value 1
SYMBOL res 320 48 R0
SYMATTR InstName R1
SYMATTR Value 1
SYMBOL res 416 48 R0
SYMATTR InstName R2
SYMATTR Value 4
TEXT 46 280 Left 2 !;tran 1m
TEXT -160 96 Left 2 !.dc V1 1v 10v 1v
